Error opening code model "REPLACE_ME_PREFIX/spice2poly.cm": REPLACE_ME_PREFIX/spice2poly.cm: cannot open shared object file: No such file or directory
Error: Library REPLACE_ME_PREFIX/spice2poly.cm couldn't be loaded!
Error opening code model "REPLACE_ME_PREFIX/analog.cm": REPLACE_ME_PREFIX/analog.cm: cannot open shared object file: No such file or directory
Error: Library REPLACE_ME_PREFIX/analog.cm couldn't be loaded!
Error opening code model "REPLACE_ME_PREFIX/digital.cm": REPLACE_ME_PREFIX/digital.cm: cannot open shared object file: No such file or directory
Error: Library REPLACE_ME_PREFIX/digital.cm couldn't be loaded!
Error opening code model "REPLACE_ME_PREFIX/xtradev.cm": REPLACE_ME_PREFIX/xtradev.cm: cannot open shared object file: No such file or directory
Error: Library REPLACE_ME_PREFIX/xtradev.cm couldn't be loaded!
Error opening code model "REPLACE_ME_PREFIX/xtraevt.cm": REPLACE_ME_PREFIX/xtraevt.cm: cannot open shared object file: No such file or directory
Error: Library REPLACE_ME_PREFIX/xtraevt.cm couldn't be loaded!
Error opening code model "REPLACE_ME_PREFIX/table.cm": REPLACE_ME_PREFIX/table.cm: cannot open shared object file: No such file or directory
Error: Library REPLACE_ME_PREFIX/table.cm couldn't be loaded!

Note: Compatibility modes selected: hs a

Warning: m=xx on .subckt line will override multiplier m hierarchy!


Circuit: ** sch_path: /home/noahmack/chipisu/my-first-caravel-project/xschem/invtb_post.sch

option SCALE: Scale is set to 1e-06 for instance and model parameters
binary raw file "./invTB_post.raw"
Doing analysis at TEMP = 27.000000 and TNOM = 27.000000

No. of Data Columns : 45  

Initial Transient Solution
--------------------------

Node                                   Voltage
----                                   -------
x1.vout.t0                                 2.5
x1.vin.t0                                    0
x1.vdd.t1                                  2.5
x1.vdd.t0                                  2.5
x1.vout.t1                                 2.5
x1.vin.t1                                    0
x1.vss.t1                          2.84403e-10
x1.vss.t0                          3.03149e-10
x1.vin.n0                                    0
vin                                          0
x1.vdd.n8                                  2.5
x1.vdd.n7                                  2.5
x1.vdd.n5                                  2.5
x1.vdd.n3                                  2.5
x1.vdd.n11                                 2.5
x1.vdd.n2                                  2.5
x1.vdd.n6                                  2.5
x1.vdd.n4                                  2.5
x1.vdd.n1                                  2.5
x1.vdd.n0                                  2.5
x1.vdd.n9                                  2.5
x1.vdd.n10                                 2.5
vdd                                        2.5
x1.vout.n0                                 2.5
vout                                       2.5
x1.vss.n6                          1.70102e-10
x1.vss.n2                          5.65676e-11
x1.vss.n3                          6.56288e-11
x1.vss.n7                           1.4837e-10
x1.vss.n4                          2.93723e-10
x1.vss.n5                          5.73525e-11
x1.vss.n8                          9.84214e-12
x1.vss.n0                          1.73724e-11
x1.vss.n1                          2.85691e-11
x1.vss.n10                         5.15303e-13
x1.vss.n9                          1.70332e-12
v2#branch                          -5.8975e-12
v1#branch                                    0


No. of Data Rows : 101208

Total analysis time (seconds) = 1.765

Total elapsed time (seconds) = 4.630 

Total DRAM available = 15760.629 MB.
DRAM currently available = 9979.473 MB.
Maximum ngspice program size =  105.078 MB.
Current ngspice program size =   31.285 MB.

Shared ngspice pages =    9.754 MB.
Text (code) pages =    6.383 MB.
Stack = 0 bytes.
Library pages =   30.266 MB.

