Error opening code model "REPLACE_ME_PREFIX/spice2poly.cm": REPLACE_ME_PREFIX/spice2poly.cm: cannot open shared object file: No such file or directory
Error: Library REPLACE_ME_PREFIX/spice2poly.cm couldn't be loaded!
Error opening code model "REPLACE_ME_PREFIX/analog.cm": REPLACE_ME_PREFIX/analog.cm: cannot open shared object file: No such file or directory
Error: Library REPLACE_ME_PREFIX/analog.cm couldn't be loaded!
Error opening code model "REPLACE_ME_PREFIX/digital.cm": REPLACE_ME_PREFIX/digital.cm: cannot open shared object file: No such file or directory
Error: Library REPLACE_ME_PREFIX/digital.cm couldn't be loaded!
Error opening code model "REPLACE_ME_PREFIX/xtradev.cm": REPLACE_ME_PREFIX/xtradev.cm: cannot open shared object file: No such file or directory
Error: Library REPLACE_ME_PREFIX/xtradev.cm couldn't be loaded!
Error opening code model "REPLACE_ME_PREFIX/xtraevt.cm": REPLACE_ME_PREFIX/xtraevt.cm: cannot open shared object file: No such file or directory
Error: Library REPLACE_ME_PREFIX/xtraevt.cm couldn't be loaded!
Error opening code model "REPLACE_ME_PREFIX/table.cm": REPLACE_ME_PREFIX/table.cm: cannot open shared object file: No such file or directory
Error: Library REPLACE_ME_PREFIX/table.cm couldn't be loaded!

Note: Compatibility modes selected: hs a

Warning: m=xx on .subckt line will override multiplier m hierarchy!


Circuit: ** sch_path: /home/noahmack/chipisu/my-first-caravel-project/xschem/invtb.sch

option SCALE: Scale is set to 1e-06 for instance and model parameters
binary raw file "./invTB.raw"
Doing analysis at TEMP = 27.000000 and TNOM = 27.000000

No. of Data Columns : 12  

Initial Transient Solution
--------------------------

Node                                   Voltage
----                                   -------
vout                                       2.5
vin                                          0
vdd                                        2.5
v2#branch                         -5.90283e-12
v1#branch                                    0


No. of Data Rows : 101208

Total analysis time (seconds) = 1.207

Total elapsed time (seconds) = 4.094 

Total DRAM available = 15760.629 MB.
DRAM currently available = 10578.500 MB.
Maximum ngspice program size =  105.059 MB.
Current ngspice program size =   31.207 MB.

Shared ngspice pages =    9.746 MB.
Text (code) pages =    6.383 MB.
Stack = 0 bytes.
Library pages =   30.246 MB.

